Version 4
SHEET 1 1416 680
WIRE 144 -128 16 -128
WIRE 224 -128 144 -128
WIRE 992 -128 784 -128
WIRE 1216 -128 992 -128
WIRE 144 -96 144 -128
WIRE 784 -80 784 -128
WIRE 992 -64 992 -128
WIRE 16 -32 16 -128
WIRE 144 16 144 -16
WIRE 224 16 144 16
WIRE 144 48 144 16
WIRE 640 48 576 48
WIRE 784 48 784 0
WIRE 784 48 720 48
WIRE 848 48 784 48
WIRE 992 48 992 0
WIRE 992 48 928 48
WIRE 1088 96 1056 96
WIRE 576 128 576 48
WIRE 784 128 784 48
WIRE 1056 128 1056 96
WIRE 992 144 992 48
WIRE 1024 144 992 144
WIRE 16 160 16 48
WIRE 144 160 144 128
WIRE 144 160 16 160
WIRE 224 160 144 160
WIRE 1216 160 1216 -128
WIRE 1216 160 1088 160
WIRE 1280 160 1216 160
WIRE 1024 176 992 176
WIRE 1056 224 1056 192
WIRE 1088 224 1056 224
WIRE 576 288 576 208
WIRE 784 288 784 192
WIRE 784 288 576 288
WIRE 992 288 992 176
WIRE 992 288 784 288
WIRE 576 352 576 288
FLAG 224 16 0
FLAG 224 -128 +15
IOPIN 224 -128 Out
FLAG 224 160 -15
IOPIN 224 160 Out
FLAG 1088 96 +15
IOPIN 1088 96 In
FLAG 1088 224 -15
IOPIN 1088 224 In
FLAG 1280 160 output
IOPIN 1280 160 Out
FLAG 576 352 0
SYMBOL voltage 16 -48 R0
WINDOW 123 0 0 Left 2
WINDOW 39 0 0 Left 2
SYMATTR InstName V1
SYMATTR Value 30
SYMBOL res 128 -112 R0
SYMATTR InstName R1
SYMATTR Value 470
SYMBOL res 128 32 R0
SYMATTR InstName R2
SYMATTR Value 470
SYMBOL Opamps\\LT1113 1056 96 R0
SYMATTR InstName U1
SYMBOL voltage 576 112 M0
WINDOW 123 24 124 Left 2
WINDOW 39 0 0 Left 2
SYMATTR InstName V2
SYMATTR Value SINE(0 1 1k)
SYMATTR Value2 AC 1 1
SYMBOL res 736 32 R90
WINDOW 0 0 56 VBottom 2
WINDOW 3 32 56 VTop 2
SYMATTR InstName R3
SYMATTR Value 2k
SYMBOL cap 768 128 R0
SYMATTR InstName C1
SYMATTR Value 220p
SYMBOL res 768 -96 R0
SYMATTR InstName R5
SYMATTR Value 100k
SYMBOL cap 976 -64 R0
SYMATTR InstName C2
SYMATTR Value 15p
SYMBOL res 944 32 R90
WINDOW 0 0 56 VBottom 2
WINDOW 3 32 56 VTop 2
SYMATTR InstName R4
SYMATTR Value 1k
TEXT -18 344 Left 2 !;tran 10m
TEXT -20 364 Left 2 !.ac oct 1k 1 1Meg
