Version 4
SHEET 1 2728 1460
WIRE -48 -672 -48 -704
WIRE -48 -672 -192 -672
WIRE 16 -672 -48 -672
WIRE -192 -656 -192 -672
WIRE 608 -656 512 -656
WIRE 704 -656 608 -656
WIRE -48 -640 -48 -672
WIRE 512 -624 512 -656
WIRE 608 -624 608 -656
WIRE 704 -624 704 -656
WIRE 304 -576 304 -640
WIRE -192 -544 -192 -576
WIRE 512 -512 512 -544
WIRE 560 -512 512 -512
WIRE 608 -512 608 -544
WIRE 608 -512 560 -512
WIRE 704 -512 704 -544
WIRE 704 -512 608 -512
WIRE 560 -480 560 -512
WIRE -192 -432 -192 -464
WIRE -48 -432 -48 -560
WIRE -48 -432 -192 -432
WIRE 192 -416 144 -416
WIRE 304 -416 304 -496
WIRE 304 -416 272 -416
WIRE 336 -416 304 -416
WIRE 464 -416 416 -416
WIRE -48 -384 -48 -432
WIRE 144 -304 144 -416
WIRE 144 -304 0 -304
WIRE 464 -304 464 -416
WIRE 608 -304 464 -304
WIRE 144 -256 144 -304
WIRE 464 -256 464 -304
WIRE 304 -208 192 -208
WIRE 416 -208 304 -208
WIRE 96 -192 -48 -192
WIRE 304 -192 304 -208
WIRE 656 -192 512 -192
WIRE 0 -144 0 -304
WIRE 608 -144 608 -304
WIRE 112 -32 112 -144
WIRE 160 -32 112 -32
WIRE 304 -32 304 -112
WIRE 304 -32 224 -32
WIRE 384 -32 304 -32
WIRE 496 -32 496 -144
WIRE 496 -32 448 -32
WIRE 112 64 112 -32
WIRE 160 64 112 64
WIRE 304 64 304 -32
WIRE 304 64 240 64
WIRE 368 64 304 64
WIRE 496 64 496 -32
WIRE 496 64 448 64
WIRE 304 80 304 64
WIRE 0 240 0 -64
WIRE 256 240 0 240
WIRE 608 240 608 -64
WIRE 608 240 336 240
WIRE 0 320 0 240
WIRE 80 320 0 320
WIRE 208 320 160 320
WIRE 448 320 384 320
WIRE 608 320 608 240
WIRE 608 320 528 320
WIRE -160 432 -224 432
WIRE -48 432 -48 -192
WIRE -48 432 -80 432
WIRE 48 432 -48 432
WIRE 208 432 208 320
WIRE 208 432 112 432
WIRE 384 432 384 320
WIRE 496 432 384 432
WIRE 656 432 656 -192
WIRE 656 432 560 432
WIRE 688 432 656 432
WIRE 832 432 768 432
WIRE 208 496 208 432
WIRE 384 496 384 432
WIRE 80 544 -112 544
WIRE 160 544 80 544
WIRE 480 544 432 544
WIRE -112 576 -112 544
WIRE 80 576 80 544
WIRE 480 576 480 544
WIRE -112 688 -112 656
WIRE 80 688 80 656
WIRE 176 688 176 592
WIRE 304 688 176 688
WIRE 416 688 416 592
WIRE 416 688 304 688
WIRE 480 688 480 656
WIRE 176 736 176 688
WIRE 304 752 304 688
WIRE 176 864 176 816
WIRE 304 880 304 832
FLAG 480 688 0
FLAG 80 688 0
FLAG 304 80 0
FLAG 304 -640 0
FLAG 560 -480 0
FLAG -48 -704 0
FLAG -48 -384 -15V
IOPIN -48 -384 In
FLAG 304 880 -15V
IOPIN 304 880 In
FLAG 16 -672 bias
FLAG -224 432 bias
FLAG 832 432 bias
FLAG 176 864 0
FLAG -112 688 0
SYMBOL voltage 304 -480 R180
WINDOW 123 0 0 Left 2
WINDOW 39 0 0 Left 2
SYMATTR InstName V1
SYMATTR Value 300
SYMBOL res 464 560 R0
SYMATTR InstName R1
SYMATTR Value 10k
SYMBOL res 96 560 M0
SYMATTR InstName R2
SYMATTR Value 10k
SYMBOL res 64 304 M90
WINDOW 0 0 56 VBottom 2
WINDOW 3 32 56 VTop 2
SYMATTR InstName R3
SYMATTR Value 220k
SYMBOL res 544 304 R90
WINDOW 0 0 56 VBottom 2
WINDOW 3 32 56 VTop 2
SYMATTR InstName R4
SYMATTR Value 220k
SYMBOL current 304 752 R0
WINDOW 123 0 0 Left 2
WINDOW 39 0 0 Left 2
SYMATTR InstName I1
SYMATTR Value 1m
SYMBOL Misc\\tetrode 144 -208 R0
SYMATTR InstName U3
SYMATTR Value 6BQ5
SYMBOL Misc\\tetrode 464 -208 M0
SYMATTR InstName U4
SYMATTR Value 6BQ5
SYMBOL voltage 304 -208 R0
WINDOW 123 0 0 Left 2
WINDOW 39 0 0 Left 2
SYMATTR InstName V2
SYMATTR Value 250
SYMBOL ind2 320 -400 R270
WINDOW 0 32 56 VTop 2
WINDOW 3 5 56 VBottom 2
SYMATTR InstName L1
SYMATTR Value 100
SYMATTR Type ind
SYMATTR SpiceLine Rser=80
SYMBOL ind2 176 -400 R270
WINDOW 0 32 56 VTop 2
WINDOW 3 5 56 VBottom 2
SYMATTR InstName L2
SYMATTR Value 100
SYMATTR Type ind
SYMATTR SpiceLine Rser=80
SYMBOL res -16 -160 R0
SYMATTR InstName R5
SYMATTR Value 100k
SYMBOL res 352 224 R90
WINDOW 0 0 56 VBottom 2
WINDOW 3 32 56 VTop 2
SYMATTR InstName R6
SYMATTR Value {R6}
SYMBOL res 624 -160 M0
SYMATTR InstName R7
SYMATTR Value 100k
SYMBOL ind2 528 -528 R180
WINDOW 0 36 80 Left 2
WINDOW 3 36 40 Left 2
SYMATTR InstName L3
SYMATTR Value 1
SYMATTR Type ind
SYMATTR SpiceLine Rser=8
SYMBOL res 592 -640 R0
SYMATTR InstName R8
SYMATTR Value 8
SYMBOL voltage -48 -656 R0
WINDOW 123 0 0 Left 2
WINDOW 39 0 0 Left 2
SYMATTR InstName V3
SYMATTR Value 15
SYMBOL cap 112 416 R90
WINDOW 0 0 32 VBottom 2
WINDOW 3 32 32 VTop 2
SYMATTR InstName C1
SYMATTR Value 47n
SYMBOL res -176 -672 M0
SYMATTR InstName R9
SYMATTR Value 4.7k
SYMBOL res -176 -560 M0
SYMATTR InstName R10
SYMATTR Value 3.9k
SYMBOL res -64 416 R90
WINDOW 0 0 56 VBottom 2
WINDOW 3 32 56 VTop 2
SYMATTR InstName R11
SYMATTR Value 470k
SYMBOL cap 496 416 M90
WINDOW 0 0 32 VBottom 2
WINDOW 3 32 32 VTop 2
SYMATTR InstName C2
SYMATTR Value 47n
SYMBOL res 672 416 M90
WINDOW 0 0 56 VBottom 2
WINDOW 3 32 56 VTop 2
SYMATTR InstName R12
SYMATTR Value 470k
SYMBOL voltage -112 560 R0
WINDOW 123 24 124 Left 2
WINDOW 39 0 0 Left 2
SYMATTR Value2 AC 1 1
SYMATTR InstName V4
SYMATTR Value SINE(0 {Vin} 1k)
SYMBOL res 192 720 M0
SYMATTR InstName R13
SYMATTR Value 1Meg
SYMBOL Misc\\triode 208 544 R0
SYMATTR InstName U1
SYMATTR Value 12AX7
SYMBOL Misc\\triode 384 544 M0
SYMATTR InstName U2
SYMATTR Value 12AX7
SYMBOL res 256 48 R90
WINDOW 0 0 56 VBottom 2
WINDOW 3 32 56 VTop 2
SYMATTR InstName R14
SYMATTR Value {Rk}
SYMBOL res 352 48 M90
WINDOW 0 0 56 VBottom 2
WINDOW 3 32 56 VTop 2
SYMATTR InstName R15
SYMATTR Value {Rk}
SYMBOL cap 448 -48 R90
WINDOW 0 0 32 VBottom 2
WINDOW 3 32 32 VTop 2
SYMATTR InstName C3
SYMATTR Value 220µ
SYMBOL cap 224 -48 R90
WINDOW 0 0 32 VBottom 2
WINDOW 3 32 32 VTop 2
SYMATTR InstName C4
SYMATTR Value 220µ
TEXT 1216 632 Left 2 !*\n* Generic pentode model: 6BQ5\n* Copyright 2003--2008 by Ayumi Nakabayashi, All rights reserved.\n* Version 3.10, Generated on Sat Mar  8 22:39:19 2008\n*            Plate\n*            | Screen Grid\n*            | | Control Grid\n*            | | | Cathode\n*            | | | |\n.SUBCKT 6BQ5 A G2 G1 K\nBGG   GG   0 V=V(G1,K)+0.03372597\nBM1   M1   0 V=(0.014266539*(URAMP(V(G2,K))+1e-10))**-0.43210132\nBM2   M2   0 V=(0.7763568*(URAMP(V(GG)+URAMP(V(G2,K))/15.676066)))**1.9321013\nBP    P    0 V=0.0040800354*(URAMP(V(GG)+URAMP(V(G2,K))/20.191832))**1.5\nBIK   IK   0 V=U(V(GG))*V(P)+(1-U(V(GG)))*0.0023829269*V(M1)*V(M2)\nBIG   IG   0 V=0.0020400177*URAMP(V(G1,K))**1.5*(URAMP(V(G1,K))/(URAMP(V(A,K))+URAMP(V(G1,K)))*1.2+0.4)\nBIK2  IK2  0 V=V(IK,IG)*(1-0.4*(EXP(-URAMP(V(A,K))/URAMP(V(G2,K))*15)-EXP(-15)))\nBIG2T IG2T 0 V=V(IK2)*(0.904015183*(1-URAMP(V(A,K))/(URAMP(V(A,K))+10))**1.5+0.095984817)\nBIK3  IK3  0 V=V(IK2)*(URAMP(V(A,K))+2486)/(URAMP(V(G2,K))+2486)\nBIK4  IK4  0 V=V(IK3)-URAMP(V(IK3)-(0.0023468355*(URAMP(V(A,K))+URAMP(URAMP(V(G2,K))-URAMP(V(A,K))))**1.5))\nBIP   IP   0 V=URAMP(V(IK4,IG2T)-URAMP(V(IK4,IG2T)-(0.0023468355*URAMP(V(A,K))**1.5)))\nBIAK  A    K I=V(IP)+1e-10*V(A,K)\nBIG2  G2   K I=URAMP(V(IK4,IP))\nBIGK  G1   K I=V(IG)\n* CAPS\nCGA   G1  A  0.5p\nCGK   G1  K  6.2p\nC12   G1  G2 4.1p\nCAK   A   K  6p\n.ENDS
TEXT 1208 -16 Left 2 !*\n* Generic triode model: 12AX7\n* Copyright 2003--2008 by Ayumi Nakabayashi, All rights reserved.\n* Version 3.10, Generated on Sat Mar  8 22:41:09 2008\n*             Plate\n*             | Grid\n*             | | Cathode\n*             | | |\n.SUBCKT 12AX7 A G K\nBGG   GG   0 V=V(G,K)+0.59836683\nBM1   M1   0 V=(0.0017172334*(URAMP(V(A,K))+1e-10))**-0.2685074\nBM2   M2   0 V=(0.84817287*(URAMP(V(GG)+URAMP(V(A,K))/88.413802)+1e-10))**1.7685074\nBP    P    0 V=0.001130216*(URAMP(V(GG)+URAMP(V(A,K))/104.24031)+1e-10)**1.5\nBIK   IK   0 V=U(V(GG))*V(P)+(1-U(V(GG)))*0.00071211506*V(M1)*V(M2)\nBIG   IG   0 V=0.000565108*URAMP(V(G,K))**1.5*(URAMP(V(G,K))/(URAMP(V(A,K))+URAMP(V(G,K)))*1.2+0.4)\nBIAK  A    K I=URAMP(V(IK,IG)-URAMP(V(IK,IG)-(0.00058141055*URAMP(V(A,K))**1.5)))+1e-10*V(A,K)\nBIGK  G    K I=V(IG)\n* CAPS\nCGA   G    A 1.7p\nCGK   G    K 1.6p\nCAK   A    K 0.5p\n.ENDS
TEXT 488 -680 Left 2 !K L1 L2 L3 1
TEXT -728 -480 Left 2 !.tran 10m
TEXT -744 64 Left 2 ;.STEP PARAM Vin 0.05 0.3 0.05
TEXT -744 104 Left 2 !.PARAM Vin 0.3
TEXT -736 -336 Left 2 !.MEAS Vg1 PP V(n007)\n.MEAS Va PP V(N009,N011)\n.MEAS Ia PP I(R4)\n.MEAS NFB PARAM 20*log10(Va/Vg1)\n.MEAS VOUT PP V(n001)\n.MEAS POWER PARAM VOUT**2/64
TEXT -728 -448 Left 2 !;ac oct 1000 1 100k
TEXT -744 -128 Left 2 ;.STEP PARAM R6 LIST 1 12k 24k 48k 100k
TEXT 1208 -872 Left 2 !*\n* Generic pentode model: 6AU6\n* Copyright 2003--2008 by Ayumi Nakabayashi, All rights reserved.\n* Version 3.10, Generated on Sat Mar  8 22:39:10 2008\n*            Plate\n*            | Screen Grid\n*            | | Control Grid\n*            | | | Cathode\n*            | | | |\n.SUBCKT 6AU6 A G2 G1 K\nBGG   GG   0 V=V(G1,K)+0.24107953\nBM1   M1   0 V=(0.014176045*(URAMP(V(G2,K))+1e-10))**-0.93570358\nBM2   M2   0 V=(0.61583848*(URAMP(V(GG)+URAMP(V(G2,K))/27.099343)))**2.4357036\nBP    P    0 V=0.0032162308*(URAMP(V(GG)+URAMP(V(G2,K))/44.003978))**1.5\nBIK   IK   0 V=U(V(GG))*V(P)+(1-U(V(GG)))*0.0020681021*V(M1)*V(M2)\nBIG   IG   0 V=0.0016081154*URAMP(V(G1,K))**1.5*(URAMP(V(G1,K))/(URAMP(V(A,K))+URAMP(V(G1,K)))*1.2+0.4)\nBIK2  IK2  0 V=V(IK,IG)*(1-0.4*(EXP(-URAMP(V(A,K))/URAMP(V(G2,K))*15)-EXP(-15)))\nBIG2T IG2T 0 V=V(IK2)*(0.71681629*(1-URAMP(V(A,K))/(URAMP(V(A,K))+10))**1.5+0.28318371)\nBIK3  IK3  0 V=V(IK2)*(URAMP(V(A,K))+15750)/(URAMP(V(G2,K))+15750)\nBIK4  IK4  0 V=V(IK3)-URAMP(V(IK3)-(0.0017183702*(URAMP(V(A,K))+URAMP(URAMP(V(G2,K))-URAMP(V(A,K))))**1.5))\nBIP   IP   0 V=URAMP(V(IK4,IG2T)-URAMP(V(IK4,IG2T)-(0.0017183702*URAMP(V(A,K))**1.5)))\nBIAK  A    K I=V(IP)+1e-10*V(A,K)\nBIG2  G2   K I=URAMP(V(IK4,IP))\nBIGK  G1   K I=V(IG)\n* CAPS\nCGA   G1  A  0.0035p\nCGK   G1  K  3.3p\nC12   G1  G2 2.2p\nCAK   A   K  5p\n.ENDS
TEXT -744 -96 Left 2 !.PARAM R6 12k
TEXT -744 -40 Left 2 ;.STEP PARAM Rk LIST 1 10 22 47
TEXT -744 0 Left 2 !.PARAM Rk 128
